[root]
type=Root
children=system
eventq_index=0
full_system=true
sim_quantum=0
time_sync_enable=false
time_sync_period=100000000000
time_sync_spin_threshold=100000000

[system]
type=LinuxX86System
children=acpi_description_table_pointer clk_domain cpu0 cpu1 cpu2 cpu3 cpu4 cpu5 cpu6 cpu7 cpu_clk_domain cpu_voltage_domain dvfs_handler e820_table intel_mp_pointer intel_mp_table intrctrl iobus mem_ctrls0 mem_ctrls1 mem_ctrls2 mem_ctrls3 mem_ctrls4 mem_ctrls5 mem_ctrls6 mem_ctrls7 pc ruby smbios_table sys_port_proxy voltage_domain
acpi_description_table_pointer=system.acpi_description_table_pointer
boot_osflags=earlyprintk=ttyS0 console=ttyS0 lpj=7999923 root=/dev/hda1
cache_line_size=64
clk_domain=system.clk_domain
default_p_state=UNDEFINED
e820_table=system.e820_table
eventq_index=0
exit_on_work_items=false
init_param=0
intel_mp_pointer=system.intel_mp_pointer
intel_mp_table=system.intel_mp_table
kernel=/home/bharuka2/ece511/gem5/binaries/vmlinux
kernel_addr_check=true
kernel_extras=
kvm_vm=Null
load_addr_mask=18446744073709551615
load_offset=0
mem_mode=timing
mem_ranges=0:536870911:0:0:0:0
memories=system.mem_ctrls0 system.mem_ctrls1 system.mem_ctrls2 system.mem_ctrls3 system.mem_ctrls4 system.mem_ctrls5 system.mem_ctrls6 system.mem_ctrls7
mmap_using_noreserve=false
multi_thread=false
num_work_ids=16
p_state_clk_gate_bins=20
p_state_clk_gate_max=1000000000000
p_state_clk_gate_min=1000
power_model=
readfile=./benchmarks/oracle.rcS
smbios_table=system.smbios_table
symbolfile=
thermal_components=
thermal_model=Null
work_begin_ckpt_count=0
work_begin_cpu_id_exit=-1
work_begin_exit_count=0
work_cpus_ckpt_count=0
work_end_ckpt_count=0
work_end_exit_count=0
work_item_id=-1
system_port=system.sys_port_proxy.slave[0]

[system.acpi_description_table_pointer]
type=X86ACPIRSDP
children=xsdt
eventq_index=0
oem_id=
revision=2
rsdt=Null
xsdt=system.acpi_description_table_pointer.xsdt

[system.acpi_description_table_pointer.xsdt]
type=X86ACPIXSDT
creator_id=
creator_revision=0
entries=
eventq_index=0
oem_id=
oem_revision=0
oem_table_id=

[system.clk_domain]
type=SrcClockDomain
clock=1000
domain_id=-1
eventq_index=0
init_perf_level=0
voltage_domain=system.voltage_domain

[system.cpu0]
type=TimingSimpleCPU
children=apic_clk_domain dtb interrupts isa itb tracer
branchPred=Null
checker=Null
clk_domain=system.cpu_clk_domain
cpu_id=0
default_p_state=UNDEFINED
do_checkpoint_insts=true
do_quiesce=true
do_statistics_insts=true
dtb=system.cpu0.dtb
eventq_index=0
function_trace=false
function_trace_start=0
interrupts=system.cpu0.interrupts
isa=system.cpu0.isa
itb=system.cpu0.itb
max_insts_all_threads=0
max_insts_any_thread=300000000
max_loads_all_threads=0
max_loads_any_thread=0
numThreads=1
p_state_clk_gate_bins=20
p_state_clk_gate_max=1000000000000
p_state_clk_gate_min=1000
power_gating_on_idle=false
power_model=
profile=0
progress_interval=0
pwr_gating_latency=300
simpoint_start_insts=
socket_id=0
switched_out=false
syscallRetryLatency=10000
system=system
tracer=system.cpu0.tracer
wait_for_remote_gdb=false
workload=
dcache_port=system.ruby.l1_cntrl0.sequencer.slave[1]
icache_port=system.ruby.l1_cntrl0.sequencer.slave[0]

[system.cpu0.apic_clk_domain]
type=DerivedClockDomain
clk_divider=16
clk_domain=system.cpu_clk_domain
eventq_index=0

[system.cpu0.dtb]
type=X86TLB
children=walker
clk_domain=system.cpu_clk_domain
default_p_state=UNDEFINED
eventq_index=0
p_state_clk_gate_bins=20
p_state_clk_gate_max=1000000000000
p_state_clk_gate_min=1000
power_model=
size=64
walker=system.cpu0.dtb.walker

[system.cpu0.dtb.walker]
type=X86PagetableWalker
clk_domain=system.cpu_clk_domain
default_p_state=UNDEFINED
eventq_index=0
num_squash_per_cycle=4
p_state_clk_gate_bins=20
p_state_clk_gate_max=1000000000000
p_state_clk_gate_min=1000
power_model=
system=system
port=system.ruby.l1_cntrl0.sequencer.slave[3]

[system.cpu0.interrupts]
type=X86LocalApic
clk_domain=system.cpu0.apic_clk_domain
default_p_state=UNDEFINED
eventq_index=0
int_latency=1000
p_state_clk_gate_bins=20
p_state_clk_gate_max=1000000000000
p_state_clk_gate_min=1000
pio_addr=2305843009213693952
pio_latency=100000
power_model=
system=system
int_master=system.ruby.l1_cntrl0.sequencer.slave[4]
int_slave=system.ruby.l1_cntrl0.sequencer.master[1]
pio=system.ruby.l1_cntrl0.sequencer.master[0]

[system.cpu0.isa]
type=X86ISA
eventq_index=0

[system.cpu0.itb]
type=X86TLB
children=walker
clk_domain=system.cpu_clk_domain
default_p_state=UNDEFINED
eventq_index=0
p_state_clk_gate_bins=20
p_state_clk_gate_max=1000000000000
p_state_clk_gate_min=1000
power_model=
size=64
walker=system.cpu0.itb.walker

[system.cpu0.itb.walker]
type=X86PagetableWalker
clk_domain=system.cpu_clk_domain
default_p_state=UNDEFINED
eventq_index=0
num_squash_per_cycle=4
p_state_clk_gate_bins=20
p_state_clk_gate_max=1000000000000
p_state_clk_gate_min=1000
power_model=
system=system
port=system.ruby.l1_cntrl0.sequencer.slave[2]

[system.cpu0.tracer]
type=ExeTracer
eventq_index=0

[system.cpu1]
type=TimingSimpleCPU
children=apic_clk_domain dtb interrupts isa itb tracer
branchPred=Null
checker=Null
clk_domain=system.cpu_clk_domain
cpu_id=1
default_p_state=UNDEFINED
do_checkpoint_insts=true
do_quiesce=true
do_statistics_insts=true
dtb=system.cpu1.dtb
eventq_index=0
function_trace=false
function_trace_start=0
interrupts=system.cpu1.interrupts
isa=system.cpu1.isa
itb=system.cpu1.itb
max_insts_all_threads=0
max_insts_any_thread=300000000
max_loads_all_threads=0
max_loads_any_thread=0
numThreads=1
p_state_clk_gate_bins=20
p_state_clk_gate_max=1000000000000
p_state_clk_gate_min=1000
power_gating_on_idle=false
power_model=
profile=0
progress_interval=0
pwr_gating_latency=300
simpoint_start_insts=
socket_id=0
switched_out=false
syscallRetryLatency=10000
system=system
tracer=system.cpu1.tracer
wait_for_remote_gdb=false
workload=
dcache_port=system.ruby.l1_cntrl1.sequencer.slave[1]
icache_port=system.ruby.l1_cntrl1.sequencer.slave[0]

[system.cpu1.apic_clk_domain]
type=DerivedClockDomain
clk_divider=16
clk_domain=system.cpu_clk_domain
eventq_index=0

[system.cpu1.dtb]
type=X86TLB
children=walker
clk_domain=system.cpu_clk_domain
default_p_state=UNDEFINED
eventq_index=0
p_state_clk_gate_bins=20
p_state_clk_gate_max=1000000000000
p_state_clk_gate_min=1000
power_model=
size=64
walker=system.cpu1.dtb.walker

[system.cpu1.dtb.walker]
type=X86PagetableWalker
clk_domain=system.cpu_clk_domain
default_p_state=UNDEFINED
eventq_index=0
num_squash_per_cycle=4
p_state_clk_gate_bins=20
p_state_clk_gate_max=1000000000000
p_state_clk_gate_min=1000
power_model=
system=system
port=system.ruby.l1_cntrl1.sequencer.slave[3]

[system.cpu1.interrupts]
type=X86LocalApic
clk_domain=system.cpu1.apic_clk_domain
default_p_state=UNDEFINED
eventq_index=0
int_latency=1000
p_state_clk_gate_bins=20
p_state_clk_gate_max=1000000000000
p_state_clk_gate_min=1000
pio_addr=2305843009213693952
pio_latency=100000
power_model=
system=system
int_master=system.ruby.l1_cntrl1.sequencer.slave[4]
int_slave=system.ruby.l1_cntrl1.sequencer.master[1]
pio=system.ruby.l1_cntrl1.sequencer.master[0]

[system.cpu1.isa]
type=X86ISA
eventq_index=0

[system.cpu1.itb]
type=X86TLB
children=walker
clk_domain=system.cpu_clk_domain
default_p_state=UNDEFINED
eventq_index=0
p_state_clk_gate_bins=20
p_state_clk_gate_max=1000000000000
p_state_clk_gate_min=1000
power_model=
size=64
walker=system.cpu1.itb.walker

[system.cpu1.itb.walker]
type=X86PagetableWalker
clk_domain=system.cpu_clk_domain
default_p_state=UNDEFINED
eventq_index=0
num_squash_per_cycle=4
p_state_clk_gate_bins=20
p_state_clk_gate_max=1000000000000
p_state_clk_gate_min=1000
power_model=
system=system
port=system.ruby.l1_cntrl1.sequencer.slave[2]

[system.cpu1.tracer]
type=ExeTracer
eventq_index=0

[system.cpu2]
type=TimingSimpleCPU
children=apic_clk_domain dtb interrupts isa itb tracer
branchPred=Null
checker=Null
clk_domain=system.cpu_clk_domain
cpu_id=2
default_p_state=UNDEFINED
do_checkpoint_insts=true
do_quiesce=true
do_statistics_insts=true
dtb=system.cpu2.dtb
eventq_index=0
function_trace=false
function_trace_start=0
interrupts=system.cpu2.interrupts
isa=system.cpu2.isa
itb=system.cpu2.itb
max_insts_all_threads=0
max_insts_any_thread=300000000
max_loads_all_threads=0
max_loads_any_thread=0
numThreads=1
p_state_clk_gate_bins=20
p_state_clk_gate_max=1000000000000
p_state_clk_gate_min=1000
power_gating_on_idle=false
power_model=
profile=0
progress_interval=0
pwr_gating_latency=300
simpoint_start_insts=
socket_id=0
switched_out=false
syscallRetryLatency=10000
system=system
tracer=system.cpu2.tracer
wait_for_remote_gdb=false
workload=
dcache_port=system.ruby.l1_cntrl2.sequencer.slave[1]
icache_port=system.ruby.l1_cntrl2.sequencer.slave[0]

[system.cpu2.apic_clk_domain]
type=DerivedClockDomain
clk_divider=16
clk_domain=system.cpu_clk_domain
eventq_index=0

[system.cpu2.dtb]
type=X86TLB
children=walker
clk_domain=system.cpu_clk_domain
default_p_state=UNDEFINED
eventq_index=0
p_state_clk_gate_bins=20
p_state_clk_gate_max=1000000000000
p_state_clk_gate_min=1000
power_model=
size=64
walker=system.cpu2.dtb.walker

[system.cpu2.dtb.walker]
type=X86PagetableWalker
clk_domain=system.cpu_clk_domain
default_p_state=UNDEFINED
eventq_index=0
num_squash_per_cycle=4
p_state_clk_gate_bins=20
p_state_clk_gate_max=1000000000000
p_state_clk_gate_min=1000
power_model=
system=system
port=system.ruby.l1_cntrl2.sequencer.slave[3]

[system.cpu2.interrupts]
type=X86LocalApic
clk_domain=system.cpu2.apic_clk_domain
default_p_state=UNDEFINED
eventq_index=0
int_latency=1000
p_state_clk_gate_bins=20
p_state_clk_gate_max=1000000000000
p_state_clk_gate_min=1000
pio_addr=2305843009213693952
pio_latency=100000
power_model=
system=system
int_master=system.ruby.l1_cntrl2.sequencer.slave[4]
int_slave=system.ruby.l1_cntrl2.sequencer.master[1]
pio=system.ruby.l1_cntrl2.sequencer.master[0]

[system.cpu2.isa]
type=X86ISA
eventq_index=0

[system.cpu2.itb]
type=X86TLB
children=walker
clk_domain=system.cpu_clk_domain
default_p_state=UNDEFINED
eventq_index=0
p_state_clk_gate_bins=20
p_state_clk_gate_max=1000000000000
p_state_clk_gate_min=1000
power_model=
size=64
walker=system.cpu2.itb.walker

[system.cpu2.itb.walker]
type=X86PagetableWalker
clk_domain=system.cpu_clk_domain
default_p_state=UNDEFINED
eventq_index=0
num_squash_per_cycle=4
p_state_clk_gate_bins=20
p_state_clk_gate_max=1000000000000
p_state_clk_gate_min=1000
power_model=
system=system
port=system.ruby.l1_cntrl2.sequencer.slave[2]

[system.cpu2.tracer]
type=ExeTracer
eventq_index=0

[system.cpu3]
type=TimingSimpleCPU
children=apic_clk_domain dtb interrupts isa itb tracer
branchPred=Null
checker=Null
clk_domain=system.cpu_clk_domain
cpu_id=3
default_p_state=UNDEFINED
do_checkpoint_insts=true
do_quiesce=true
do_statistics_insts=true
dtb=system.cpu3.dtb
eventq_index=0
function_trace=false
function_trace_start=0
interrupts=system.cpu3.interrupts
isa=system.cpu3.isa
itb=system.cpu3.itb
max_insts_all_threads=0
max_insts_any_thread=300000000
max_loads_all_threads=0
max_loads_any_thread=0
numThreads=1
p_state_clk_gate_bins=20
p_state_clk_gate_max=1000000000000
p_state_clk_gate_min=1000
power_gating_on_idle=false
power_model=
profile=0
progress_interval=0
pwr_gating_latency=300
simpoint_start_insts=
socket_id=0
switched_out=false
syscallRetryLatency=10000
system=system
tracer=system.cpu3.tracer
wait_for_remote_gdb=false
workload=
dcache_port=system.ruby.l1_cntrl3.sequencer.slave[1]
icache_port=system.ruby.l1_cntrl3.sequencer.slave[0]

[system.cpu3.apic_clk_domain]
type=DerivedClockDomain
clk_divider=16
clk_domain=system.cpu_clk_domain
eventq_index=0

[system.cpu3.dtb]
type=X86TLB
children=walker
clk_domain=system.cpu_clk_domain
default_p_state=UNDEFINED
eventq_index=0
p_state_clk_gate_bins=20
p_state_clk_gate_max=1000000000000
p_state_clk_gate_min=1000
power_model=
size=64
walker=system.cpu3.dtb.walker

[system.cpu3.dtb.walker]
type=X86PagetableWalker
clk_domain=system.cpu_clk_domain
default_p_state=UNDEFINED
eventq_index=0
num_squash_per_cycle=4
p_state_clk_gate_bins=20
p_state_clk_gate_max=1000000000000
p_state_clk_gate_min=1000
power_model=
system=system
port=system.ruby.l1_cntrl3.sequencer.slave[3]

[system.cpu3.interrupts]
type=X86LocalApic
clk_domain=system.cpu3.apic_clk_domain
default_p_state=UNDEFINED
eventq_index=0
int_latency=1000
p_state_clk_gate_bins=20
p_state_clk_gate_max=1000000000000
p_state_clk_gate_min=1000
pio_addr=2305843009213693952
pio_latency=100000
power_model=
system=system
int_master=system.ruby.l1_cntrl3.sequencer.slave[4]
int_slave=system.ruby.l1_cntrl3.sequencer.master[1]
pio=system.ruby.l1_cntrl3.sequencer.master[0]

[system.cpu3.isa]
type=X86ISA
eventq_index=0

[system.cpu3.itb]
type=X86TLB
children=walker
clk_domain=system.cpu_clk_domain
default_p_state=UNDEFINED
eventq_index=0
p_state_clk_gate_bins=20
p_state_clk_gate_max=1000000000000
p_state_clk_gate_min=1000
power_model=
size=64
walker=system.cpu3.itb.walker

[system.cpu3.itb.walker]
type=X86PagetableWalker
clk_domain=system.cpu_clk_domain
default_p_state=UNDEFINED
eventq_index=0
num_squash_per_cycle=4
p_state_clk_gate_bins=20
p_state_clk_gate_max=1000000000000
p_state_clk_gate_min=1000
power_model=
system=system
port=system.ruby.l1_cntrl3.sequencer.slave[2]

[system.cpu3.tracer]
type=ExeTracer
eventq_index=0

[system.cpu4]
type=TimingSimpleCPU
children=apic_clk_domain dtb interrupts isa itb tracer
branchPred=Null
checker=Null
clk_domain=system.cpu_clk_domain
cpu_id=4
default_p_state=UNDEFINED
do_checkpoint_insts=true
do_quiesce=true
do_statistics_insts=true
dtb=system.cpu4.dtb
eventq_index=0
function_trace=false
function_trace_start=0
interrupts=system.cpu4.interrupts
isa=system.cpu4.isa
itb=system.cpu4.itb
max_insts_all_threads=0
max_insts_any_thread=300000000
max_loads_all_threads=0
max_loads_any_thread=0
numThreads=1
p_state_clk_gate_bins=20
p_state_clk_gate_max=1000000000000
p_state_clk_gate_min=1000
power_gating_on_idle=false
power_model=
profile=0
progress_interval=0
pwr_gating_latency=300
simpoint_start_insts=
socket_id=0
switched_out=false
syscallRetryLatency=10000
system=system
tracer=system.cpu4.tracer
wait_for_remote_gdb=false
workload=
dcache_port=system.ruby.l1_cntrl4.sequencer.slave[1]
icache_port=system.ruby.l1_cntrl4.sequencer.slave[0]

[system.cpu4.apic_clk_domain]
type=DerivedClockDomain
clk_divider=16
clk_domain=system.cpu_clk_domain
eventq_index=0

[system.cpu4.dtb]
type=X86TLB
children=walker
clk_domain=system.cpu_clk_domain
default_p_state=UNDEFINED
eventq_index=0
p_state_clk_gate_bins=20
p_state_clk_gate_max=1000000000000
p_state_clk_gate_min=1000
power_model=
size=64
walker=system.cpu4.dtb.walker

[system.cpu4.dtb.walker]
type=X86PagetableWalker
clk_domain=system.cpu_clk_domain
default_p_state=UNDEFINED
eventq_index=0
num_squash_per_cycle=4
p_state_clk_gate_bins=20
p_state_clk_gate_max=1000000000000
p_state_clk_gate_min=1000
power_model=
system=system
port=system.ruby.l1_cntrl4.sequencer.slave[3]

[system.cpu4.interrupts]
type=X86LocalApic
clk_domain=system.cpu4.apic_clk_domain
default_p_state=UNDEFINED
eventq_index=0
int_latency=1000
p_state_clk_gate_bins=20
p_state_clk_gate_max=1000000000000
p_state_clk_gate_min=1000
pio_addr=2305843009213693952
pio_latency=100000
power_model=
system=system
int_master=system.ruby.l1_cntrl4.sequencer.slave[4]
int_slave=system.ruby.l1_cntrl4.sequencer.master[1]
pio=system.ruby.l1_cntrl4.sequencer.master[0]

[system.cpu4.isa]
type=X86ISA
eventq_index=0

[system.cpu4.itb]
type=X86TLB
children=walker
clk_domain=system.cpu_clk_domain
default_p_state=UNDEFINED
eventq_index=0
p_state_clk_gate_bins=20
p_state_clk_gate_max=1000000000000
p_state_clk_gate_min=1000
power_model=
size=64
walker=system.cpu4.itb.walker

[system.cpu4.itb.walker]
type=X86PagetableWalker
clk_domain=system.cpu_clk_domain
default_p_state=UNDEFINED
eventq_index=0
num_squash_per_cycle=4
p_state_clk_gate_bins=20
p_state_clk_gate_max=1000000000000
p_state_clk_gate_min=1000
power_model=
system=system
port=system.ruby.l1_cntrl4.sequencer.slave[2]

[system.cpu4.tracer]
type=ExeTracer
eventq_index=0

[system.cpu5]
type=TimingSimpleCPU
children=apic_clk_domain dtb interrupts isa itb tracer
branchPred=Null
checker=Null
clk_domain=system.cpu_clk_domain
cpu_id=5
default_p_state=UNDEFINED
do_checkpoint_insts=true
do_quiesce=true
do_statistics_insts=true
dtb=system.cpu5.dtb
eventq_index=0
function_trace=false
function_trace_start=0
interrupts=system.cpu5.interrupts
isa=system.cpu5.isa
itb=system.cpu5.itb
max_insts_all_threads=0
max_insts_any_thread=300000000
max_loads_all_threads=0
max_loads_any_thread=0
numThreads=1
p_state_clk_gate_bins=20
p_state_clk_gate_max=1000000000000
p_state_clk_gate_min=1000
power_gating_on_idle=false
power_model=
profile=0
progress_interval=0
pwr_gating_latency=300
simpoint_start_insts=
socket_id=0
switched_out=false
syscallRetryLatency=10000
system=system
tracer=system.cpu5.tracer
wait_for_remote_gdb=false
workload=
dcache_port=system.ruby.l1_cntrl5.sequencer.slave[1]
icache_port=system.ruby.l1_cntrl5.sequencer.slave[0]

[system.cpu5.apic_clk_domain]
type=DerivedClockDomain
clk_divider=16
clk_domain=system.cpu_clk_domain
eventq_index=0

[system.cpu5.dtb]
type=X86TLB
children=walker
clk_domain=system.cpu_clk_domain
default_p_state=UNDEFINED
eventq_index=0
p_state_clk_gate_bins=20
p_state_clk_gate_max=1000000000000
p_state_clk_gate_min=1000
power_model=
size=64
walker=system.cpu5.dtb.walker

[system.cpu5.dtb.walker]
type=X86PagetableWalker
clk_domain=system.cpu_clk_domain
default_p_state=UNDEFINED
eventq_index=0
num_squash_per_cycle=4
p_state_clk_gate_bins=20
p_state_clk_gate_max=1000000000000
p_state_clk_gate_min=1000
power_model=
system=system
port=system.ruby.l1_cntrl5.sequencer.slave[3]

[system.cpu5.interrupts]
type=X86LocalApic
clk_domain=system.cpu5.apic_clk_domain
default_p_state=UNDEFINED
eventq_index=0
int_latency=1000
p_state_clk_gate_bins=20
p_state_clk_gate_max=1000000000000
p_state_clk_gate_min=1000
pio_addr=2305843009213693952
pio_latency=100000
power_model=
system=system
int_master=system.ruby.l1_cntrl5.sequencer.slave[4]
int_slave=system.ruby.l1_cntrl5.sequencer.master[1]
pio=system.ruby.l1_cntrl5.sequencer.master[0]

[system.cpu5.isa]
type=X86ISA
eventq_index=0

[system.cpu5.itb]
type=X86TLB
children=walker
clk_domain=system.cpu_clk_domain
default_p_state=UNDEFINED
eventq_index=0
p_state_clk_gate_bins=20
p_state_clk_gate_max=1000000000000
p_state_clk_gate_min=1000
power_model=
size=64
walker=system.cpu5.itb.walker

[system.cpu5.itb.walker]
type=X86PagetableWalker
clk_domain=system.cpu_clk_domain
default_p_state=UNDEFINED
eventq_index=0
num_squash_per_cycle=4
p_state_clk_gate_bins=20
p_state_clk_gate_max=1000000000000
p_state_clk_gate_min=1000
power_model=
system=system
port=system.ruby.l1_cntrl5.sequencer.slave[2]

[system.cpu5.tracer]
type=ExeTracer
eventq_index=0

[system.cpu6]
type=TimingSimpleCPU
children=apic_clk_domain dtb interrupts isa itb tracer
branchPred=Null
checker=Null
clk_domain=system.cpu_clk_domain
cpu_id=6
default_p_state=UNDEFINED
do_checkpoint_insts=true
do_quiesce=true
do_statistics_insts=true
dtb=system.cpu6.dtb
eventq_index=0
function_trace=false
function_trace_start=0
interrupts=system.cpu6.interrupts
isa=system.cpu6.isa
itb=system.cpu6.itb
max_insts_all_threads=0
max_insts_any_thread=300000000
max_loads_all_threads=0
max_loads_any_thread=0
numThreads=1
p_state_clk_gate_bins=20
p_state_clk_gate_max=1000000000000
p_state_clk_gate_min=1000
power_gating_on_idle=false
power_model=
profile=0
progress_interval=0
pwr_gating_latency=300
simpoint_start_insts=
socket_id=0
switched_out=false
syscallRetryLatency=10000
system=system
tracer=system.cpu6.tracer
wait_for_remote_gdb=false
workload=
dcache_port=system.ruby.l1_cntrl6.sequencer.slave[1]
icache_port=system.ruby.l1_cntrl6.sequencer.slave[0]

[system.cpu6.apic_clk_domain]
type=DerivedClockDomain
clk_divider=16
clk_domain=system.cpu_clk_domain
eventq_index=0

[system.cpu6.dtb]
type=X86TLB
children=walker
clk_domain=system.cpu_clk_domain
default_p_state=UNDEFINED
eventq_index=0
p_state_clk_gate_bins=20
p_state_clk_gate_max=1000000000000
p_state_clk_gate_min=1000
power_model=
size=64
walker=system.cpu6.dtb.walker

[system.cpu6.dtb.walker]
type=X86PagetableWalker
clk_domain=system.cpu_clk_domain
default_p_state=UNDEFINED
eventq_index=0
num_squash_per_cycle=4
p_state_clk_gate_bins=20
p_state_clk_gate_max=1000000000000
p_state_clk_gate_min=1000
power_model=
system=system
port=system.ruby.l1_cntrl6.sequencer.slave[3]

[system.cpu6.interrupts]
type=X86LocalApic
clk_domain=system.cpu6.apic_clk_domain
default_p_state=UNDEFINED
eventq_index=0
int_latency=1000
p_state_clk_gate_bins=20
p_state_clk_gate_max=1000000000000
p_state_clk_gate_min=1000
pio_addr=2305843009213693952
pio_latency=100000
power_model=
system=system
int_master=system.ruby.l1_cntrl6.sequencer.slave[4]
int_slave=system.ruby.l1_cntrl6.sequencer.master[1]
pio=system.ruby.l1_cntrl6.sequencer.master[0]

[system.cpu6.isa]
type=X86ISA
eventq_index=0

[system.cpu6.itb]
type=X86TLB
children=walker
clk_domain=system.cpu_clk_domain
default_p_state=UNDEFINED
eventq_index=0
p_state_clk_gate_bins=20
p_state_clk_gate_max=1000000000000
p_state_clk_gate_min=1000
power_model=
size=64
walker=system.cpu6.itb.walker

[system.cpu6.itb.walker]
type=X86PagetableWalker
clk_domain=system.cpu_clk_domain
default_p_state=UNDEFINED
eventq_index=0
num_squash_per_cycle=4
p_state_clk_gate_bins=20
p_state_clk_gate_max=1000000000000
p_state_clk_gate_min=1000
power_model=
system=system
port=system.ruby.l1_cntrl6.sequencer.slave[2]

[system.cpu6.tracer]
type=ExeTracer
eventq_index=0

[system.cpu7]
type=TimingSimpleCPU
children=apic_clk_domain dtb interrupts isa itb tracer
branchPred=Null
checker=Null
clk_domain=system.cpu_clk_domain
cpu_id=7
default_p_state=UNDEFINED
do_checkpoint_insts=true
do_quiesce=true
do_statistics_insts=true
dtb=system.cpu7.dtb
eventq_index=0
function_trace=false
function_trace_start=0
interrupts=system.cpu7.interrupts
isa=system.cpu7.isa
itb=system.cpu7.itb
max_insts_all_threads=0
max_insts_any_thread=300000000
max_loads_all_threads=0
max_loads_any_thread=0
numThreads=1
p_state_clk_gate_bins=20
p_state_clk_gate_max=1000000000000
p_state_clk_gate_min=1000
power_gating_on_idle=false
power_model=
profile=0
progress_interval=0
pwr_gating_latency=300
simpoint_start_insts=
socket_id=0
switched_out=false
syscallRetryLatency=10000
system=system
tracer=system.cpu7.tracer
wait_for_remote_gdb=false
workload=
dcache_port=system.ruby.l1_cntrl7.sequencer.slave[1]
icache_port=system.ruby.l1_cntrl7.sequencer.slave[0]

[system.cpu7.apic_clk_domain]
type=DerivedClockDomain
clk_divider=16
clk_domain=system.cpu_clk_domain
eventq_index=0

[system.cpu7.dtb]
type=X86TLB
children=walker
clk_domain=system.cpu_clk_domain
default_p_state=UNDEFINED
eventq_index=0
p_state_clk_gate_bins=20
p_state_clk_gate_max=1000000000000
p_state_clk_gate_min=1000
power_model=
size=64
walker=system.cpu7.dtb.walker

[system.cpu7.dtb.walker]
type=X86PagetableWalker
clk_domain=system.cpu_clk_domain
default_p_state=UNDEFINED
eventq_index=0
num_squash_per_cycle=4
p_state_clk_gate_bins=20
p_state_clk_gate_max=1000000000000
p_state_clk_gate_min=1000
power_model=
system=system
port=system.ruby.l1_cntrl7.sequencer.slave[3]

[system.cpu7.interrupts]
type=X86LocalApic
clk_domain=system.cpu7.apic_clk_domain
default_p_state=UNDEFINED
eventq_index=0
int_latency=1000
p_state_clk_gate_bins=20
p_state_clk_gate_max=1000000000000
p_state_clk_gate_min=1000
pio_addr=2305843009213693952
pio_latency=100000
power_model=
system=system
int_master=system.ruby.l1_cntrl7.sequencer.slave[4]
int_slave=system.ruby.l1_cntrl7.sequencer.master[1]
pio=system.ruby.l1_cntrl7.sequencer.master[0]

[system.cpu7.isa]
type=X86ISA
eventq_index=0

[system.cpu7.itb]
type=X86TLB
children=walker
clk_domain=system.cpu_clk_domain
default_p_state=UNDEFINED
eventq_index=0
p_state_clk_gate_bins=20
p_state_clk_gate_max=1000000000000
p_state_clk_gate_min=1000
power_model=
size=64
walker=system.cpu7.itb.walker

[system.cpu7.itb.walker]
type=X86PagetableWalker
clk_domain=system.cpu_clk_domain
default_p_state=UNDEFINED
eventq_index=0
num_squash_per_cycle=4
p_state_clk_gate_bins=20
p_state_clk_gate_max=1000000000000
p_state_clk_gate_min=1000
power_model=
system=system
port=system.ruby.l1_cntrl7.sequencer.slave[2]

[system.cpu7.tracer]
type=ExeTracer
eventq_index=0

[system.cpu_clk_domain]
type=SrcClockDomain
clock=500
domain_id=-1
eventq_index=0
init_perf_level=0
voltage_domain=system.cpu_voltage_domain

[system.cpu_voltage_domain]
type=VoltageDomain
eventq_index=0
voltage=1.0

[system.dvfs_handler]
type=DVFSHandler
domains=
enable=false
eventq_index=0
sys_clk_domain=system.clk_domain
transition_latency=100000000

[system.e820_table]
type=X86E820Table
children=entries0 entries1 entries2 entries3 entries4
entries=system.e820_table.entries0 system.e820_table.entries1 system.e820_table.entries2 system.e820_table.entries3 system.e820_table.entries4
eventq_index=0

[system.e820_table.entries0]
type=X86E820Entry
addr=0
eventq_index=0
range_type=1
size=654336

[system.e820_table.entries1]
type=X86E820Entry
addr=654336
eventq_index=0
range_type=2
size=394240

[system.e820_table.entries2]
type=X86E820Entry
addr=1048576
eventq_index=0
range_type=1
size=535822336

[system.e820_table.entries3]
type=X86E820Entry
addr=536870912
eventq_index=0
range_type=2
size=2684354560

[system.e820_table.entries4]
type=X86E820Entry
addr=4294901760
eventq_index=0
range_type=2
size=65536

[system.intel_mp_pointer]
type=X86IntelMPFloatingPointer
default_config=0
eventq_index=0
imcr_present=true
spec_rev=4

[system.intel_mp_table]
type=X86IntelMPConfigTable
children=base_entries00 base_entries01 base_entries02 base_entries03 base_entries04 base_entries05 base_entries06 base_entries07 base_entries08 base_entries09 base_entries10 base_entries11 base_entries12 base_entries13 base_entries14 base_entries15 base_entries16 base_entries17 base_entries18 base_entries19 base_entries20 base_entries21 base_entries22 base_entries23 base_entries24 base_entries25 base_entries26 base_entries27 base_entries28 base_entries29 base_entries30 base_entries31 base_entries32 base_entries33 base_entries34 base_entries35 base_entries36 base_entries37 base_entries38 base_entries39 ext_entries
base_entries=system.intel_mp_table.base_entries00 system.intel_mp_table.base_entries01 system.intel_mp_table.base_entries02 system.intel_mp_table.base_entries03 system.intel_mp_table.base_entries04 system.intel_mp_table.base_entries05 system.intel_mp_table.base_entries06 system.intel_mp_table.base_entries07 system.intel_mp_table.base_entries08 system.intel_mp_table.base_entries09 system.intel_mp_table.base_entries10 system.intel_mp_table.base_entries11 system.intel_mp_table.base_entries12 system.intel_mp_table.base_entries13 system.intel_mp_table.base_entries14 system.intel_mp_table.base_entries15 system.intel_mp_table.base_entries16 system.intel_mp_table.base_entries17 system.intel_mp_table.base_entries18 system.intel_mp_table.base_entries19 system.intel_mp_table.base_entries20 system.intel_mp_table.base_entries21 system.intel_mp_table.base_entries22 system.intel_mp_table.base_entries23 system.intel_mp_table.base_entries24 system.intel_mp_table.base_entries25 system.intel_mp_table.base_entries26 system.intel_mp_table.base_entries27 system.intel_mp_table.base_entries28 system.intel_mp_table.base_entries29 system.intel_mp_table.base_entries30 system.intel_mp_table.base_entries31 system.intel_mp_table.base_entries32 system.intel_mp_table.base_entries33 system.intel_mp_table.base_entries34 system.intel_mp_table.base_entries35 system.intel_mp_table.base_entries36 system.intel_mp_table.base_entries37 system.intel_mp_table.base_entries38 system.intel_mp_table.base_entries39
eventq_index=0
ext_entries=system.intel_mp_table.ext_entries
local_apic=4276092928
oem_id=
oem_table_addr=0
oem_table_size=0
product_id=
spec_rev=4

[system.intel_mp_table.base_entries00]
type=X86IntelMPProcessor
bootstrap=true
enable=true
eventq_index=0
family=0
feature_flags=0
local_apic_id=0
local_apic_version=20
model=0
stepping=0

[system.intel_mp_table.base_entries01]
type=X86IntelMPProcessor
bootstrap=false
enable=true
eventq_index=0
family=0
feature_flags=0
local_apic_id=1
local_apic_version=20
model=0
stepping=0

[system.intel_mp_table.base_entries02]
type=X86IntelMPProcessor
bootstrap=false
enable=true
eventq_index=0
family=0
feature_flags=0
local_apic_id=2
local_apic_version=20
model=0
stepping=0

[system.intel_mp_table.base_entries03]
type=X86IntelMPProcessor
bootstrap=false
enable=true
eventq_index=0
family=0
feature_flags=0
local_apic_id=3
local_apic_version=20
model=0
stepping=0

[system.intel_mp_table.base_entries04]
type=X86IntelMPProcessor
bootstrap=false
enable=true
eventq_index=0
family=0
feature_flags=0
local_apic_id=4
local_apic_version=20
model=0
stepping=0

[system.intel_mp_table.base_entries05]
type=X86IntelMPProcessor
bootstrap=false
enable=true
eventq_index=0
family=0
feature_flags=0
local_apic_id=5
local_apic_version=20
model=0
stepping=0

[system.intel_mp_table.base_entries06]
type=X86IntelMPProcessor
bootstrap=false
enable=true
eventq_index=0
family=0
feature_flags=0
local_apic_id=6
local_apic_version=20
model=0
stepping=0

[system.intel_mp_table.base_entries07]
type=X86IntelMPProcessor
bootstrap=false
enable=true
eventq_index=0
family=0
feature_flags=0
local_apic_id=7
local_apic_version=20
model=0
stepping=0

[system.intel_mp_table.base_entries08]
type=X86IntelMPIOAPIC
address=4273995776
enable=true
eventq_index=0
id=8
version=17

[system.intel_mp_table.base_entries09]
type=X86IntelMPBus
bus_id=0
bus_type=PCI   
eventq_index=0

[system.intel_mp_table.base_entries10]
type=X86IntelMPBus
bus_id=1
bus_type=ISA   
eventq_index=0

[system.intel_mp_table.base_entries11]
type=X86IntelMPIOIntAssignment
dest_io_apic_id=8
dest_io_apic_intin=16
eventq_index=0
interrupt_type=INT
polarity=ConformPolarity
source_bus_id=0
source_bus_irq=16
trigger=ConformTrigger

[system.intel_mp_table.base_entries12]
type=X86IntelMPIOIntAssignment
dest_io_apic_id=8
dest_io_apic_intin=0
eventq_index=0